REMARK  6 active torsions:
REMARK  status: ('A' for Active; 'I' for Inactive)
REMARK    1  A    between atoms: O_1  and  C_11 
REMARK    2  A    between atoms: O_2  and  C_17 
REMARK    3  A    between atoms: O_4  and  C_23 
REMARK    4  A    between atoms: C_8  and  C_17 
REMARK    5  A    between atoms: C_9  and  C_19 
REMARK    6  A    between atoms: C_19  and  C_21 
ROOT
HETATM    1  C   LIG     1      -1.235   0.309  -0.115  1.00  0.00    -0.032 C 
HETATM    2  C   LIG     1      -2.353  -0.718   0.334  1.00  0.00     0.007 C 
HETATM    3  C   LIG     1      -3.846  -0.222   0.246  1.00  0.00     0.008 C 
HETATM    4  C   LIG     1       0.160  -0.284   0.357  1.00  0.00     0.025 C 
HETATM    5  C   LIG     1      -1.496   1.668   0.584  1.00  0.00     0.012 C 
HETATM    6  C   LIG     1      -3.949   1.177   0.922  1.00  0.00     0.128 C 
HETATM    7  C   LIG     1      -2.105  -2.116  -0.280  1.00  0.00     0.010 C 
HETATM    8  C   LIG     1      -2.921   2.183   0.416  1.00  0.00     0.033 C 
HETATM    9  C   LIG     1      -1.192   0.545  -1.647  1.00  0.00     0.016 C 
HETATM   10  C   LIG     1      -0.722  -2.658   0.088  1.00  0.00     0.034 C 
HETATM   11  C   LIG     1       0.370  -1.673  -0.245  1.00  0.00    -0.084 C 
HETATM   12  C   LIG     1      -4.758  -1.187   1.056  1.00  0.00     0.020 C 
HETATM   13  C   LIG     1       1.404  -2.043  -1.018  1.00  0.00     0.015 C 
ENDROOT
BRANCH   4  14
HETATM   14  C   LIG     1       1.353   0.670   0.176  1.00  0.00     0.037 C 
BRANCH  14  15
HETATM   15  C   LIG     1       2.595   0.081   0.758  1.00  0.00    -0.010 C 
HETATM   16  C   LIG     1       3.820   0.318   0.284  1.00  0.00     0.044 C 
HETATM   17  C   LIG     1       4.222   1.231  -0.810  1.00  0.00     0.181 C 
HETATM   18  C   LIG     1       5.032  -0.286   0.869  1.00  0.00     0.291 C 
HETATM   19  C   LIG     1       5.650   1.528  -0.409  1.00  0.00     0.215 C 
HETATM   20  O   LIG     1       6.099   0.383   0.340  1.00  0.00    -0.315 OA
HETATM   21  O   LIG     1       5.086  -1.211   1.657  1.00  0.00    -0.260 OA
BRANCH  17  22
HETATM   22  O   LIG     1       4.222   0.529  -2.047  1.00  0.00    -0.389 OA
HETATM   23  H   LIG     1       4.569   1.133  -2.725  1.00  0.00     0.210 HD
ENDBRANCH  17  22
ENDBRANCH  14  15
ENDBRANCH   4  14
BRANCH   3  24
HETATM   24  C   LIG     1      -4.424  -0.206  -1.185  1.00  0.00     0.176 C 
BRANCH  24  25
HETATM   25  O   LIG     1      -5.758   0.245  -1.109  1.00  0.00    -0.400 OA
HETATM   26  H   LIG     1      -6.118   0.239  -2.013  1.00  0.00     0.209 HD
ENDBRANCH  24  25
ENDBRANCH   3  24
BRANCH   6  27
HETATM   27  O   LIG     1      -5.254   1.736   0.780  1.00  0.00    -0.395 OA
HETATM   28  H   LIG     1      -5.269   2.578   1.266  1.00  0.00     0.210 HD
ENDBRANCH   6  27
TORSDOF 6
