REMARK  11 active torsions:
REMARK  status: ('A' for Active; 'I' for Inactive)
REMARK    1  A    between atoms: O_1  and  C_11 
REMARK    2  A    between atoms: O_1  and  C_17 
REMARK    3  A    between atoms: O_2  and  C_10 
REMARK    4  A    between atoms: O_3  and  C_14 
REMARK    5  A    between atoms: O_4  and  C_15 
REMARK    6  A    between atoms: O_5  and  C_16 
REMARK    7  A    between atoms: O_8  and  C_23 
REMARK    8  A    between atoms: O_9  and  C_25 
REMARK    9  A    between atoms: C_10  and  C_16 
REMARK   10  A    between atoms: C_17  and  C_18 
REMARK   11  A    between atoms: C_19  and  C_20 
ROOT
HETATM    1  C   LIG     1      -3.896  -0.982  -0.075  1.00  0.00     0.147 C 
HETATM    2  C   LIG     1      -2.332   1.027  -0.179  1.00  0.00     0.166 C 
HETATM    3  C   LIG     1      -2.445  -0.496  -0.059  1.00  0.00     0.084 C 
HETATM    4  C   LIG     1      -4.761  -0.239   0.955  1.00  0.00     0.083 C 
HETATM    5  C   LIG     1      -3.181   1.728   0.883  1.00  0.00     0.176 C 
HETATM    6  C   LIG     1      -4.645   1.284   0.833  1.00  0.00     0.152 C 
ENDROOT
BRANCH   2   7
HETATM    7  O   LIG     1      -0.968   1.403   0.012  1.00  0.00    -0.310 OA
BRANCH   7   8
HETATM    8  C   LIG     1      -0.080   0.868  -0.871  1.00  0.00     0.283 C 
HETATM    9  O   LIG     1      -0.300   0.556  -2.031  1.00  0.00    -0.260 OA
BRANCH   8  10
HETATM   10  C   LIG     1       1.219   0.723  -0.175  1.00  0.00     0.083 C 
HETATM   11  C   LIG     1       2.272   0.224  -0.838  1.00  0.00     0.017 C 
BRANCH  11  12
HETATM   12  C   LIG     1       3.615   0.042  -0.259  1.00  0.00    -0.033 A 
HETATM   13  C   LIG     1       4.707  -0.078  -1.103  1.00  0.00     0.050 A 
HETATM   14  C   LIG     1       5.978  -0.252  -0.555  1.00  0.00     0.099 A 
HETATM   15  C   LIG     1       6.139  -0.303   0.829  1.00  0.00     0.098 A 
HETATM   16  C   LIG     1       5.030  -0.180   1.666  1.00  0.00     0.040 A 
HETATM   17  C   LIG     1       3.759  -0.007   1.118  1.00  0.00     0.014 A 
BRANCH  14  18
HETATM   18  O   LIG     1       7.054  -0.370  -1.383  1.00  0.00    -0.358 OA
HETATM   19  H   LIG     1       7.850  -0.482  -0.835  1.00  0.00     0.218 HD
ENDBRANCH  14  18
BRANCH  15  20
HETATM   20  O   LIG     1       7.375  -0.470   1.376  1.00  0.00    -0.358 OA
HETATM   21  H   LIG     1       7.294  -0.481   2.346  1.00  0.00     0.218 HD
ENDBRANCH  15  20
ENDBRANCH  11  12
ENDBRANCH   8  10
ENDBRANCH   7   8
ENDBRANCH   2   7
BRANCH   5  22
HETATM   22  O   LIG     1      -3.126   3.141   0.689  1.00  0.00    -0.390 OA
HETATM   23  H   LIG     1      -2.188   3.399   0.702  1.00  0.00     0.210 HD
ENDBRANCH   5  22
BRANCH   1  24
HETATM   24  O   LIG     1      -4.419  -0.823  -1.389  1.00  0.00    -0.379 OA
HETATM   25  H   LIG     1      -5.368  -1.035  -1.367  1.00  0.00     0.211 HD
ENDBRANCH   1  24
BRANCH   1  26
HETATM   26  C   LIG     1      -3.943  -2.462   0.172  1.00  0.00     0.176 C 
HETATM   27  O   LIG     1      -4.343  -3.295  -0.627  1.00  0.00    -0.648 OA
BRANCH  26  28
HETATM   28  O   LIG     1      -3.481  -2.754   1.413  1.00  0.00    -0.774 OA
HETATM   29  H   LIG     1      -3.505  -3.718   1.594  1.00  0.00     0.167 HD
ENDBRANCH  26  28
ENDBRANCH   1  26
BRANCH   6  30
HETATM   30  O   LIG     1      -5.226   1.713  -0.399  1.00  0.00    -0.393 OA
HETATM   31  H   LIG     1      -5.112   2.677  -0.454  1.00  0.00     0.210 HD
ENDBRANCH   6  30
TORSDOF 11
