REMARK  11 active torsions:
REMARK  status: ('A' for Active; 'I' for Inactive)
REMARK    1  A    between atoms: O_2  and  C_10 
REMARK    2  A    between atoms: O_3  and  C_9 
REMARK    3  A    between atoms: O_4  and  C_13 
REMARK    4  A    between atoms: O_4  and  C_15 
REMARK    5  A    between atoms: O_5  and  C_12 
REMARK    6  A    between atoms: O_6  and  C_14 
REMARK    7  A    between atoms: O_7  and  C_19 
REMARK    8  A    between atoms: O_8  and  C_28 
REMARK    9  A    between atoms: C_11  and  C_14 
REMARK   10  A    between atoms: C_18  and  C_21 
REMARK   11  A    between atoms: C_22  and  C_23 
ROOT
HETATM    1  C   LIG     1       1.495   2.007   0.529  1.00  0.00     0.075 A 
HETATM    2  C   LIG     1       0.225   1.440   0.485  1.00  0.00     0.048 A 
HETATM    3  C   LIG     1       1.684   3.343   0.186  1.00  0.00     0.073 A 
HETATM    4  C   LIG     1      -0.867   2.215   0.095  1.00  0.00    -0.031 A 
HETATM    5  C   LIG     1       0.592   4.118  -0.205  1.00  0.00     0.069 A 
HETATM    6  C   LIG     1      -0.683   3.554  -0.251  1.00  0.00     0.048 A 
ENDROOT
BRANCH   1   7
HETATM    7  O   LIG     1       2.566   1.247   0.912  1.00  0.00    -0.318 OA
BRANCH   7   8
HETATM    8  C   LIG     1       2.848   0.095   0.118  1.00  0.00     0.298 C 
HETATM    9  O   LIG     1       2.126  -1.026   0.622  1.00  0.00    -0.348 OA
HETATM   10  C   LIG     1       2.346  -2.210  -0.146  1.00  0.00     0.179 C 
HETATM   11  C   LIG     1       3.819  -2.617  -0.068  1.00  0.00     0.180 C 
HETATM   12  C   LIG     1       4.724  -1.470  -0.519  1.00  0.00     0.183 C 
HETATM   13  C   LIG     1       4.353  -0.164   0.183  1.00  0.00     0.205 C 
BRANCH  10  14
HETATM   14  C   LIG     1       1.430  -3.296   0.409  1.00  0.00     0.198 C 
BRANCH  14  15
HETATM   15  O   LIG     1       0.090  -2.847   0.315  1.00  0.00    -0.398 OA
HETATM   16  H   LIG     1       0.016  -2.033   0.841  1.00  0.00     0.209 HD
ENDBRANCH  14  15
ENDBRANCH  10  14
BRANCH  11  17
HETATM   17  O   LIG     1       4.041  -3.749  -0.905  1.00  0.00    -0.390 OA
HETATM   18  H   LIG     1       3.801  -3.502  -1.814  1.00  0.00     0.210 HD
ENDBRANCH  11  17
BRANCH  12  19
HETATM   19  O   LIG     1       6.071  -1.817  -0.198  1.00  0.00    -0.390 OA
HETATM   20  H   LIG     1       6.271  -2.656  -0.648  1.00  0.00     0.210 HD
ENDBRANCH  12  19
BRANCH  13  21
HETATM   21  O   LIG     1       5.022   0.924  -0.455  1.00  0.00    -0.388 OA
HETATM   22  H   LIG     1       4.727   0.958  -1.381  1.00  0.00     0.210 HD
ENDBRANCH  13  21
ENDBRANCH   7   8
ENDBRANCH   1   7
BRANCH   4  23
HETATM   23  C   LIG     1      -2.196   1.628   0.047  1.00  0.00     0.012 C 
HETATM   24  C   LIG     1      -2.461   0.301  -0.022  1.00  0.00     0.012 C 
BRANCH  24  25
HETATM   25  C   LIG     1      -3.808  -0.296  -0.050  1.00  0.00    -0.036 A 
HETATM   26  C   LIG     1      -4.890   0.487  -0.420  1.00  0.00     0.014 A 
HETATM   27  C   LIG     1      -6.165  -0.079  -0.447  1.00  0.00     0.037 A 
HETATM   28  C   LIG     1      -6.340  -1.420  -0.103  1.00  0.00     0.065 A 
HETATM   29  C   LIG     1      -5.240  -2.194   0.267  1.00  0.00     0.037 A 
HETATM   30  C   LIG     1      -3.966  -1.628   0.294  1.00  0.00     0.014 A 
BRANCH  28  31
HETATM   31  O   LIG     1      -7.584  -1.972  -0.130  1.00  0.00    -0.361 OA
HETATM   32  H   LIG     1      -7.520  -2.905   0.136  1.00  0.00     0.217 HD
ENDBRANCH  28  31
ENDBRANCH  24  25
ENDBRANCH   4  23
BRANCH   5  33
HETATM   33  O   LIG     1       0.771   5.425  -0.542  1.00  0.00    -0.361 OA
HETATM   34  H   LIG     1      -0.089   5.808  -0.786  1.00  0.00     0.217 HD
ENDBRANCH   5  33
TORSDOF 11
